data/p13uhs0_1247/DSSfiles/p13uhs0_1247--p13udt13213/Loads.dss
New Load.load_p13ulv2240 conn=wye bus1=p13ulv2240.1.2.3 kV=0.48 Vminpu=0.8 Vmaxpu=1.2 model=1 kW=231.73200207006386 kvar=44.63055137076014 Phases=3 yearly=res_kw_8389_pu

New Load.load_p13ulv2241_1 conn=wye bus1=p13ulv2241.1 kV=0.12 Vminpu=0.8 Vmaxpu=1.2 model=1 kW=15.186125013439524 kvar=1.753668519635622 Phases=1 yearly=res_kw_5634_pu

New Load.load_p13ulv2241_2 conn=wye bus1=p13ulv2241.2 kV=0.12 Vminpu=0.8 Vmaxpu=1.2 model=1 kW=15.186125013439524 kvar=1.753668519635622 Phases=1 yearly=res_kw_5634_pu

New Load.load_p13ulv2242_1 conn=wye bus1=p13ulv2241.1 kV=0.12 Vminpu=0.8 Vmaxpu=1.2 model=1 kW=12.30875057136108 kvar=0.7368072932203784 Phases=1 yearly=res_kw_11482_pu

New Load.load_p13ulv2242_2 conn=wye bus1=p13ulv2241.2 kV=0.12 Vminpu=0.8 Vmaxpu=1.2 model=1 kW=12.30875057136108 kvar=0.7368072932203784 Phases=1 yearly=res_kw_11482_pu

New Load.load_p13ulv2243_1 conn=wye bus1=p13ulv2243.1 kV=0.12 Vminpu=0.8 Vmaxpu=1.2 model=1 kW=14.210213865880588 kvar=1.361930287944539 Phases=1 yearly=res_kw_11695_pu

New Load.load_p13ulv2243_2 conn=wye bus1=p13ulv2243.2 kV=0.12 Vminpu=0.8 Vmaxpu=1.2 model=1 kW=14.210213865880588 kvar=1.361930287944539 Phases=1 yearly=res_kw_11695_pu

New Load.load_p13ulv2244_1 conn=wye bus1=p13ulv2244.1 kV=0.12 Vminpu=0.8 Vmaxpu=1.2 model=1 kW=6.627256565273349 kvar=0.4228241823153054 Phases=1 yearly=res_kw_7527_pu

New Load.load_p13ulv2244_2 conn=wye bus1=p13ulv2244.2 kV=0.12 Vminpu=0.8 Vmaxpu=1.2 model=1 kW=6.627256565273349 kvar=0.4228241823153054 Phases=1 yearly=res_kw_7527_pu

New Load.load_p13ulv2266_1 conn=wye bus1=p13ulv2266.1 kV=0.12 Vminpu=0.8 Vmaxpu=1.2 model=1 kW=8.898343312387587 kvar=1.2494555564830871 Phases=1 yearly=res_kw_13906_pu

New Load.load_p13ulv2266_2 conn=wye bus1=p13ulv2266.2 kV=0.12 Vminpu=0.8 Vmaxpu=1.2 model=1 kW=8.898343312387587 kvar=1.2494555564830871 Phases=1 yearly=res_kw_13906_pu

New Load.load_p13ulv2267_1 conn=wye bus1=p13ulv2267.1 kV=0.12 Vminpu=0.8 Vmaxpu=1.2 model=1 kW=3.2440349665357715 kvar=1.213711237436799 Phases=1 yearly=res_kw_1670_pu

New Load.load_p13ulv2267_2 conn=wye bus1=p13ulv2267.2 kV=0.12 Vminpu=0.8 Vmaxpu=1.2 model=1 kW=3.2440349665357715 kvar=1.213711237436799 Phases=1 yearly=res_kw_1670_pu

New Load.load_p13ulv2268_1 conn=wye bus1=p13ulv2268.1 kV=0.12 Vminpu=0.8 Vmaxpu=1.2 model=1 kW=4.653017545986474 kvar=1.050503252698808 Phases=1 yearly=res_kw_4813_pu

New Load.load_p13ulv2268_2 conn=wye bus1=p13ulv2268.2 kV=0.12 Vminpu=0.8 Vmaxpu=1.2 model=1 kW=4.653017545986474 kvar=1.050503252698808 Phases=1 yearly=res_kw_4813_pu

New Load.load_p13ulv2269_1 conn=wye bus1=p13ulv2269.1 kV=0.12 Vminpu=0.8 Vmaxpu=1.2 model=1 kW=10.193242287344006 kvar=5.07265231094707 Phases=1 yearly=res_kw_14268_pu

New Load.load_p13ulv2269_2 conn=wye bus1=p13ulv2269.2 kV=0.12 Vminpu=0.8 Vmaxpu=1.2 model=1 kW=10.193242287344006 kvar=5.07265231094707 Phases=1 yearly=res_kw_14268_pu

New Load.load_p13ulv2270_1 conn=wye bus1=p13ulv2270.1 kV=0.12 Vminpu=0.8 Vmaxpu=1.2 model=1 kW=2.4549533772326604 kvar=0.9010542386153721 Phases=1 yearly=res_kw_6375_pu

New Load.load_p13ulv2270_2 conn=wye bus1=p13ulv2270.2 kV=0.12 Vminpu=0.8 Vmaxpu=1.2 model=1 kW=2.4549533772326604 kvar=0.9010542386153721 Phases=1 yearly=res_kw_6375_pu

New Load.load_p13ulv2271_1 conn=wye bus1=p13ulv2271.1 kV=0.12 Vminpu=0.8 Vmaxpu=1.2 model=1 kW=3.958964027541641 kvar=1.3653334375065627 Phases=1 yearly=res_kw_3135_pu

New Load.load_p13ulv2271_2 conn=wye bus1=p13ulv2271.2 kV=0.12 Vminpu=0.8 Vmaxpu=1.2 model=1 kW=3.958964027541641 kvar=1.3653334375065627 Phases=1 yearly=res_kw_3135_pu

New Load.load_p13ulv2272_1 conn=wye bus1=p13ulv2272.1 kV=0.12 Vminpu=0.8 Vmaxpu=1.2 model=1 kW=3.84353056223688 kvar=1.0285663602784454 Phases=1 yearly=res_kw_6730_pu

New Load.load_p13ulv2272_2 conn=wye bus1=p13ulv2272.2 kV=0.12 Vminpu=0.8 Vmaxpu=1.2 model=1 kW=3.84353056223688 kvar=1.0285663602784454 Phases=1 yearly=res_kw_6730_pu

New Load.load_p13ulv2273_1 conn=wye bus1=p13ulv2273.1 kV=0.12 Vminpu=0.8 Vmaxpu=1.2 model=1 kW=1.6255397625555168 kvar=0.5618365940178538 Phases=1 yearly=res_kw_10035_pu

New Load.load_p13ulv2273_2 conn=wye bus1=p13ulv2273.2 kV=0.12 Vminpu=0.8 Vmaxpu=1.2 model=1 kW=1.6255397625555168 kvar=0.5618365940178538 Phases=1 yearly=res_kw_10035_pu

New Load.load_p13ulv2276_1 conn=wye bus1=p13ulv2276.1 kV=0.12 Vminpu=0.8 Vmaxpu=1.2 model=1 kW=2.6400982870935055 kvar=0.6029930298758219 Phases=1 yearly=res_kw_5685_pu

New Load.load_p13ulv2276_2 conn=wye bus1=p13ulv2276.2 kV=0.12 Vminpu=0.8 Vmaxpu=1.2 model=1 kW=2.6400982870935055 kvar=0.6029930298758219 Phases=1 yearly=res_kw_5685_pu

New Load.load_p13ulv2277_1 conn=wye bus1=p13ulv2277.1 kV=0.12 Vminpu=0.8 Vmaxpu=1.2 model=1 kW=3.530107013857577 kvar=0.7493399099576905 Phases=1 yearly=res_kw_6317_pu

New Load.load_p13ulv2277_2 conn=wye bus1=p13ulv2277.2 kV=0.12 Vminpu=0.8 Vmaxpu=1.2 model=1 kW=3.530107013857577 kvar=0.7493399099576905 Phases=1 yearly=res_kw_6317_pu

New Load.load_p13ulv2278_1 conn=wye bus1=p13ulv2278.1 kV=0.12 Vminpu=0.8 Vmaxpu=1.2 model=1 kW=1.284079245362969 kvar=0.4142304830366144 Phases=1 yearly=res_kw_5095_pu

New Load.load_p13ulv2278_2 conn=wye bus1=p13ulv2278.2 kV=0.12 Vminpu=0.8 Vmaxpu=1.2 model=1 kW=1.284079245362969 kvar=0.4142304830366144 Phases=1 yearly=res_kw_5095_pu

New Load.load_p13ulv2279_1 conn=wye bus1=p13ulv2279.1 kV=0.12 Vminpu=0.8 Vmaxpu=1.2 model=1 kW=12.564393901283234 kvar=2.3218300649713264 Phases=1 yearly=res_kw_3883_pu

New Load.load_p13ulv2279_2 conn=wye bus1=p13ulv2279.2 kV=0.12 Vminpu=0.8 Vmaxpu=1.2 model=1 kW=12.564393901283234 kvar=2.3218300649713264 Phases=1 yearly=res_kw_3883_pu

New Load.load_p13ulv2280_1 conn=wye bus1=p13ulv2280.1 kV=0.12 Vminpu=0.8 Vmaxpu=1.2 model=1 kW=2.2112727173478297 kvar=0.5308516080593575 Phases=1 yearly=res_kw_9776_pu

New Load.load_p13ulv2280_2 conn=wye bus1=p13ulv2280.2 kV=0.12 Vminpu=0.8 Vmaxpu=1.2 model=1 kW=2.2112727173478297 kvar=0.5308516080593575 Phases=1 yearly=res_kw_9776_pu

New Load.load_p13ulv2281_1 conn=wye bus1=p13ulv2281.1 kV=0.12 Vminpu=0.8 Vmaxpu=1.2 model=1 kW=16.177047204461267 kvar=3.816380800928478 Phases=1 yearly=res_kw_14693_pu

New Load.load_p13ulv2281_2 conn=wye bus1=p13ulv2281.2 kV=0.12 Vminpu=0.8 Vmaxpu=1.2 model=1 kW=16.177047204461267 kvar=3.816380800928478 Phases=1 yearly=res_kw_14693_pu

New Load.load_p13ulv2282_1 conn=wye bus1=p13ulv2282.1 kV=0.12 Vminpu=0.8 Vmaxpu=1.2 model=1 kW=8.074831067129344 kvar=1.9454926485365367 Phases=1 yearly=res_kw_11218_pu

New Load.load_p13ulv2282_2 conn=wye bus1=p13ulv2282.2 kV=0.12 Vminpu=0.8 Vmaxpu=1.2 model=1 kW=8.074831067129344 kvar=1.9454926485365367 Phases=1 yearly=res_kw_11218_pu

New Load.load_p13ulv2316_1 conn=wye bus1=p13ulv2316.1 kV=0.12 Vminpu=0.8 Vmaxpu=1.2 model=1 kW=1.8365108689290175 kvar=0.5284547221380054 Phases=1 yearly=res_kw_7659_pu

New Load.load_p13ulv2316_2 conn=wye bus1=p13ulv2316.2 kV=0.12 Vminpu=0.8 Vmaxpu=1.2 model=1 kW=1.8365108689290175 kvar=0.5284547221380054 Phases=1 yearly=res_kw_7659_pu

New Load.load_p13ulv2317_1 conn=wye bus1=p13ulv2317.1 kV=0.12 Vminpu=0.8 Vmaxpu=1.2 model=1 kW=8.074831067129344 kvar=1.9454926485365367 Phases=1 yearly=res_kw_11218_pu

New Load.load_p13ulv2317_2 conn=wye bus1=p13ulv2317.2 kV=0.12 Vminpu=0.8 Vmaxpu=1.2 model=1 kW=8.074831067129344 kvar=1.9454926485365367 Phases=1 yearly=res_kw_11218_pu

New Load.load_p13ulv2318_1 conn=wye bus1=p13ulv2318.1 kV=0.12 Vminpu=0.8 Vmaxpu=1.2 model=1 kW=4.298732967846568 kvar=1.4010470651986036 Phases=1 yearly=res_kw_8466_pu

New Load.load_p13ulv2318_2 conn=wye bus1=p13ulv2318.2 kV=0.12 Vminpu=0.8 Vmaxpu=1.2 model=1 kW=4.298732967846568 kvar=1.4010470651986036 Phases=1 yearly=res_kw_8466_pu

New Load.load_p13ulv2319_1 conn=wye bus1=p13ulv2319.1 kV=0.12 Vminpu=0.8 Vmaxpu=1.2 model=1 kW=2.2112727173478297 kvar=0.5308516080593575 Phases=1 yearly=res_kw_9776_pu

New Load.load_p13ulv2319_2 conn=wye bus1=p13ulv2319.2 kV=0.12 Vminpu=0.8 Vmaxpu=1.2 model=1 kW=2.2112727173478297 kvar=0.5308516080593575 Phases=1 yearly=res_kw_9776_pu

New Load.load_p13ulv2320_1 conn=wye bus1=p13ulv2320.1 kV=0.12 Vminpu=0.8 Vmaxpu=1.2 model=1 kW=2.6400982870935055 kvar=0.6029930298758219 Phases=1 yearly=res_kw_5685_pu

New Load.load_p13ulv2320_2 conn=wye bus1=p13ulv2320.2 kV=0.12 Vminpu=0.8 Vmaxpu=1.2 model=1 kW=2.6400982870935055 kvar=0.6029930298758219 Phases=1 yearly=res_kw_5685_pu

New Load.load_p13ulv2322_1 conn=wye bus1=p13ulv2322.1 kV=0.12 Vminpu=0.8 Vmaxpu=1.2 model=1 kW=7.5383806549144365 kvar=1.9579903741368643 Phases=1 yearly=res_kw_10081_pu

New Load.load_p13ulv2322_2 conn=wye bus1=p13ulv2322.2 kV=0.12 Vminpu=0.8 Vmaxpu=1.2 model=1 kW=7.5383806549144365 kvar=1.9579903741368643 Phases=1 yearly=res_kw_10081_pu

New Load.load_p13ulv2323_1 conn=wye bus1=p13ulv2323.1 kV=0.12 Vminpu=0.8 Vmaxpu=1.2 model=1 kW=6.2417913428138085 kvar=1.8000187626264292 Phases=1 yearly=res_kw_1418_pu

New Load.load_p13ulv2323_2 conn=wye bus1=p13ulv2323.2 kV=0.12 Vminpu=0.8 Vmaxpu=1.2 model=1 kW=6.2417913428138085 kvar=1.8000187626264292 Phases=1 yearly=res_kw_1418_pu

New Load.load_p13ulv2351_1 conn=wye bus1=p13ulv2351.1 kV=0.12 Vminpu=0.8 Vmaxpu=1.2 model=1 kW=4.525303114747101 kvar=0.4722687720205482 Phases=1 yearly=res_kw_1335_pu

New Load.load_p13ulv2351_2 conn=wye bus1=p13ulv2351.2 kV=0.12 Vminpu=0.8 Vmaxpu=1.2 model=1 kW=4.525303114747101 kvar=0.4722687720205482 Phases=1 yearly=res_kw_1335_pu

New Load.load_p13ulv2352_1 conn=wye bus1=p13ulv2352.1 kV=0.12 Vminpu=0.8 Vmaxpu=1.2 model=1 kW=4.528681784258336 kvar=0.979408724380513 Phases=1 yearly=res_kw_14152_pu

New Load.load_p13ulv2352_2 conn=wye bus1=p13ulv2352.2 kV=0.12 Vminpu=0.8 Vmaxpu=1.2 model=1 kW=4.528681784258336 kvar=0.979408724380513 Phases=1 yearly=res_kw_14152_pu

New Load.load_p13ulv2353_1 conn=wye bus1=p13ulv2353.1 kV=0.12 Vminpu=0.8 Vmaxpu=1.2 model=1 kW=6.434381247431111 kvar=1.2435244633446798 Phases=1 yearly=res_kw_13124_pu

New Load.load_p13ulv2353_2 conn=wye bus1=p13ulv2353.2 kV=0.12 Vminpu=0.8 Vmaxpu=1.2 model=1 kW=6.434381247431111 kvar=1.2435244633446798 Phases=1 yearly=res_kw_13124_pu

New Load.load_p13ulv2354_1 conn=wye bus1=p13ulv2354.1 kV=0.12 Vminpu=0.8 Vmaxpu=1.2 model=1 kW=1.811785045781775 kvar=0.8857425190479955 Phases=1 yearly=res_kw_409_pu

New Load.load_p13ulv2354_2 conn=wye bus1=p13ulv2354.2 kV=0.12 Vminpu=0.8 Vmaxpu=1.2 model=1 kW=1.811785045781775 kvar=0.8857425190479955 Phases=1 yearly=res_kw_409_pu

New Load.load_p13ulv2590 conn=wye bus1=p13ulv2590.1.2.3 kV=0.48 Vminpu=0.8 Vmaxpu=1.2 model=1 kW=50.45430330624406 kvar=13.597920985367136 Phases=3 yearly=res_kw_6455_pu

New Load.load_p13ulv2591_1 conn=wye bus1=p13ulv2591.1 kV=0.12 Vminpu=0.8 Vmaxpu=1.2 model=1 kW=6.078886276822159 kvar=1.6876338826342538 Phases=1 yearly=res_kw_6112_pu

New Load.load_p13ulv2591_2 conn=wye bus1=p13ulv2591.2 kV=0.12 Vminpu=0.8 Vmaxpu=1.2 model=1 kW=6.078886276822159 kvar=1.6876338826342538 Phases=1 yearly=res_kw_6112_pu

New Load.load_p13ulv2592_1 conn=wye bus1=p13ulv2592.1 kV=0.12 Vminpu=0.8 Vmaxpu=1.2 model=1 kW=4.157123190804403 kvar=1.1652912236322537 Phases=1 yearly=com_kw_17799_pu

New Load.load_p13ulv2592_2 conn=wye bus1=p13ulv2592.2 kV=0.12 Vminpu=0.8 Vmaxpu=1.2 model=1 kW=4.157123190804403 kvar=1.1652912236322537 Phases=1 yearly=com_kw_17799_pu

New Load.load_p13ulv2593 conn=wye bus1=p13ulv2593.1.2.3 kV=0.48 Vminpu=0.8 Vmaxpu=1.2 model=1 kW=51.53853717052605 kvar=10.734640926795526 Phases=3 yearly=com_kw_1395_pu

New Load.load_p13ulv2594_1 conn=wye bus1=p13ulv2594.1 kV=0.12 Vminpu=0.8 Vmaxpu=1.2 model=1 kW=9.294894193640996 kvar=0.9075415644943656 Phases=1 yearly=com_kw_1023_pu

New Load.load_p13ulv2594_2 conn=wye bus1=p13ulv2594.2 kV=0.12 Vminpu=0.8 Vmaxpu=1.2 model=1 kW=9.294894193640996 kvar=0.9075415644943656 Phases=1 yearly=com_kw_1023_pu

New Load.load_p13ulv2595_1 conn=wye bus1=p13ulv2595.1 kV=0.12 Vminpu=0.8 Vmaxpu=1.2 model=1 kW=4.055766634676983 kvar=1.199977165248086 Phases=1 yearly=com_kw_19714_pu

New Load.load_p13ulv2595_2 conn=wye bus1=p13ulv2595.2 kV=0.12 Vminpu=0.8 Vmaxpu=1.2 model=1 kW=4.055766634676983 kvar=1.199977165248086 Phases=1 yearly=com_kw_19714_pu

New Load.load_p13ulv2596_1 conn=wye bus1=p13ulv2596.1 kV=0.12 Vminpu=0.8 Vmaxpu=1.2 model=1 kW=14.947359830098376 kvar=3.6957166411026137 Phases=1 yearly=res_kw_11257_pu

New Load.load_p13ulv2596_2 conn=wye bus1=p13ulv2596.2 kV=0.12 Vminpu=0.8 Vmaxpu=1.2 model=1 kW=14.947359830098376 kvar=3.6957166411026137 Phases=1 yearly=res_kw_11257_pu

New Load.load_p13ulv2597_1 conn=wye bus1=p13ulv2597.1 kV=0.12 Vminpu=0.8 Vmaxpu=1.2 model=1 kW=3.413920016107467 kvar=1.3778232859901267 Phases=1 yearly=res_kw_11214_pu

New Load.load_p13ulv2597_2 conn=wye bus1=p13ulv2597.2 kV=0.12 Vminpu=0.8 Vmaxpu=1.2 model=1 kW=3.413920016107467 kvar=1.3778232859901267 Phases=1 yearly=res_kw_11214_pu

New Load.load_p13ulv2598_1 conn=wye bus1=p13ulv2598.1 kV=0.12 Vminpu=0.8 Vmaxpu=1.2 model=1 kW=7.3509664248442 kvar=1.8061911726370583 Phases=1 yearly=res_kw_9346_pu

New Load.load_p13ulv2598_2 conn=wye bus1=p13ulv2598.2 kV=0.12 Vminpu=0.8 Vmaxpu=1.2 model=1 kW=7.3509664248442 kvar=1.8061911726370583 Phases=1 yearly=res_kw_9346_pu

New Load.load_p13ulv2599_1 conn=wye bus1=p13ulv2599.1 kV=0.12 Vminpu=0.8 Vmaxpu=1.2 model=1 kW=3.399494543495599 kvar=1.0033021212017004 Phases=1 yearly=res_kw_10595_pu

New Load.load_p13ulv2599_2 conn=wye bus1=p13ulv2599.2 kV=0.12 Vminpu=0.8 Vmaxpu=1.2 model=1 kW=3.399494543495599 kvar=1.0033021212017004 Phases=1 yearly=res_kw_10595_pu

New Load.load_p13ulv2600_1 conn=wye bus1=p13ulv2600.1 kV=0.12 Vminpu=0.8 Vmaxpu=1.2 model=1 kW=6.317139451053329 kvar=1.0686077089069603 Phases=1 yearly=res_kw_2437_pu

New Load.load_p13ulv2600_2 conn=wye bus1=p13ulv2600.2 kV=0.12 Vminpu=0.8 Vmaxpu=1.2 model=1 kW=6.317139451053329 kvar=1.0686077089069603 Phases=1 yearly=res_kw_2437_pu

New Load.load_p13ulv2601_1 conn=wye bus1=p13ulv2600.1 kV=0.12 Vminpu=0.8 Vmaxpu=1.2 model=1 kW=9.633169909207822 kvar=1.3028153557478144 Phases=1 yearly=res_kw_9830_pu

New Load.load_p13ulv2601_2 conn=wye bus1=p13ulv2600.2 kV=0.12 Vminpu=0.8 Vmaxpu=1.2 model=1 kW=9.633169909207822 kvar=1.3028153557478144 Phases=1 yearly=res_kw_9830_pu

New Load.load_p13ulv2602_1 conn=wye bus1=p13ulv2602.1 kV=0.12 Vminpu=0.8 Vmaxpu=1.2 model=1 kW=3.2847737371461676 kvar=0.5402234962749611 Phases=1 yearly=res_kw_4545_pu

New Load.load_p13ulv2602_2 conn=wye bus1=p13ulv2602.2 kV=0.12 Vminpu=0.8 Vmaxpu=1.2 model=1 kW=3.2847737371461676 kvar=0.5402234962749611 Phases=1 yearly=res_kw_4545_pu

New Load.load_p13ulv2603_1 conn=wye bus1=p13ulv2603.1 kV=0.12 Vminpu=0.8 Vmaxpu=1.2 model=1 kW=3.271531436845787 kvar=0.9687551727849989 Phases=1 yearly=res_kw_5017_pu

New Load.load_p13ulv2603_2 conn=wye bus1=p13ulv2603.2 kV=0.12 Vminpu=0.8 Vmaxpu=1.2 model=1 kW=3.271531436845787 kvar=0.9687551727849989 Phases=1 yearly=res_kw_5017_pu

New Load.load_p13ulv2604_1 conn=wye bus1=p13ulv2604.1 kV=0.12 Vminpu=0.8 Vmaxpu=1.2 model=1 kW=3.886201517839616 kvar=1.2907564940257399 Phases=1 yearly=res_kw_9225_pu

New Load.load_p13ulv2604_2 conn=wye bus1=p13ulv2604.2 kV=0.12 Vminpu=0.8 Vmaxpu=1.2 model=1 kW=3.886201517839616 kvar=1.2907564940257399 Phases=1 yearly=res_kw_9225_pu

New Load.load_p13ulv2605_1 conn=wye bus1=p13ulv2605.1 kV=0.12 Vminpu=0.8 Vmaxpu=1.2 model=1 kW=1.7142321347668041 kvar=0.6570798963984648 Phases=1 yearly=res_kw_3494_pu

New Load.load_p13ulv2605_2 conn=wye bus1=p13ulv2605.2 kV=0.12 Vminpu=0.8 Vmaxpu=1.2 model=1 kW=1.7142321347668041 kvar=0.6570798963984648 Phases=1 yearly=res_kw_3494_pu

New Load.load_p13ulv2606_1 conn=wye bus1=p13ulv2606.1 kV=0.12 Vminpu=0.8 Vmaxpu=1.2 model=1 kW=9.980822831463684 kvar=0.4836710576660136 Phases=1 yearly=res_kw_2149_pu

New Load.load_p13ulv2606_2 conn=wye bus1=p13ulv2606.2 kV=0.12 Vminpu=0.8 Vmaxpu=1.2 model=1 kW=9.980822831463684 kvar=0.4836710576660136 Phases=1 yearly=res_kw_2149_pu

New Load.load_p13ulv2607_1 conn=wye bus1=p13ulv2607.1 kV=0.12 Vminpu=0.8 Vmaxpu=1.2 model=1 kW=3.3199481038518184 kvar=0.3250298900750565 Phases=1 yearly=res_kw_7935_pu

New Load.load_p13ulv2607_2 conn=wye bus1=p13ulv2607.2 kV=0.12 Vminpu=0.8 Vmaxpu=1.2 model=1 kW=3.3199481038518184 kvar=0.3250298900750565 Phases=1 yearly=res_kw_7935_pu

New Load.load_p13ulv2608_1 conn=wye bus1=p13ulv2608.1 kV=0.12 Vminpu=0.8 Vmaxpu=1.2 model=1 kW=2.7096273035432676 kvar=0.9427200469116054 Phases=1 yearly=res_kw_804_pu

New Load.load_p13ulv2608_2 conn=wye bus1=p13ulv2608.2 kV=0.12 Vminpu=0.8 Vmaxpu=1.2 model=1 kW=2.7096273035432676 kvar=0.9427200469116054 Phases=1 yearly=res_kw_804_pu

New Load.load_p13ulv2609_1 conn=wye bus1=p13ulv2609.1 kV=0.12 Vminpu=0.8 Vmaxpu=1.2 model=1 kW=8.81842488002175 kvar=1.633902305048315 Phases=1 yearly=res_kw_3387_pu

New Load.load_p13ulv2609_2 conn=wye bus1=p13ulv2609.2 kV=0.12 Vminpu=0.8 Vmaxpu=1.2 model=1 kW=8.81842488002175 kvar=1.633902305048315 Phases=1 yearly=res_kw_3387_pu

New Load.load_p13ulv2610_1 conn=wye bus1=p13ulv2610.1 kV=0.12 Vminpu=0.8 Vmaxpu=1.2 model=1 kW=6.365590360286263 kvar=1.0097108934093335 Phases=1 yearly=res_kw_12185_pu

New Load.load_p13ulv2610_2 conn=wye bus1=p13ulv2610.2 kV=0.12 Vminpu=0.8 Vmaxpu=1.2 model=1 kW=6.365590360286263 kvar=1.0097108934093335 Phases=1 yearly=res_kw_12185_pu

New Load.load_p13ulv2611_1 conn=wye bus1=p13ulv2611.1 kV=0.12 Vminpu=0.8 Vmaxpu=1.2 model=1 kW=2.8885662691208727 kvar=0.9209816173614114 Phases=1 yearly=res_kw_14672_pu

New Load.load_p13ulv2611_2 conn=wye bus1=p13ulv2611.2 kV=0.12 Vminpu=0.8 Vmaxpu=1.2 model=1 kW=2.8885662691208727 kvar=0.9209816173614114 Phases=1 yearly=res_kw_14672_pu

New Load.load_p13ulv2612_1 conn=wye bus1=p13ulv2612.1 kV=0.12 Vminpu=0.8 Vmaxpu=1.2 model=1 kW=2.5835858446664703 kvar=0.8558039398992797 Phases=1 yearly=res_kw_2059_pu

New Load.load_p13ulv2612_2 conn=wye bus1=p13ulv2612.2 kV=0.12 Vminpu=0.8 Vmaxpu=1.2 model=1 kW=2.5835858446664703 kvar=0.8558039398992797 Phases=1 yearly=res_kw_2059_pu

New Load.load_p13ulv2613_1 conn=wye bus1=p13ulv2613.1 kV=0.12 Vminpu=0.8 Vmaxpu=1.2 model=1 kW=19.36940891418324 kvar=7.889537753674508 Phases=1 yearly=res_kw_10361_pu

New Load.load_p13ulv2613_2 conn=wye bus1=p13ulv2613.2 kV=0.12 Vminpu=0.8 Vmaxpu=1.2 model=1 kW=19.36940891418324 kvar=7.889537753674508 Phases=1 yearly=res_kw_10361_pu

New Load.load_p13ulv2614_1 conn=wye bus1=p13ulv2614.1 kV=0.12 Vminpu=0.8 Vmaxpu=1.2 model=1 kW=9.917112364017907 kvar=3.045608578614194 Phases=1 yearly=res_kw_933_pu

New Load.load_p13ulv2614_2 conn=wye bus1=p13ulv2614.2 kV=0.12 Vminpu=0.8 Vmaxpu=1.2 model=1 kW=9.917112364017907 kvar=3.045608578614194 Phases=1 yearly=res_kw_933_pu

New Load.load_p13ulv2615_1 conn=wye bus1=p13ulv2615.1 kV=0.12 Vminpu=0.8 Vmaxpu=1.2 model=1 kW=2.8960916576388023 kvar=0.9964685634210223 Phases=1 yearly=res_kw_12807_pu

New Load.load_p13ulv2615_2 conn=wye bus1=p13ulv2615.2 kV=0.12 Vminpu=0.8 Vmaxpu=1.2 model=1 kW=2.8960916576388023 kvar=0.9964685634210223 Phases=1 yearly=res_kw_12807_pu

New Load.load_p13ulv2618_1 conn=wye bus1=p13ulv2618.1 kV=0.12 Vminpu=0.8 Vmaxpu=1.2 model=1 kW=3.3199481038518184 kvar=0.3250298900750565 Phases=1 yearly=res_kw_7935_pu

New Load.load_p13ulv2618_2 conn=wye bus1=p13ulv2618.2 kV=0.12 Vminpu=0.8 Vmaxpu=1.2 model=1 kW=3.3199481038518184 kvar=0.3250298900750565 Phases=1 yearly=res_kw_7935_pu

New Load.load_p13ulv2619_1 conn=wye bus1=p13ulv2619.1 kV=0.12 Vminpu=0.8 Vmaxpu=1.2 model=1 kW=6.324729992074726 kvar=0.8549214797969529 Phases=1 yearly=res_kw_3243_pu

New Load.load_p13ulv2619_2 conn=wye bus1=p13ulv2619.2 kV=0.12 Vminpu=0.8 Vmaxpu=1.2 model=1 kW=6.324729992074726 kvar=0.8549214797969529 Phases=1 yearly=res_kw_3243_pu

New Load.load_p13ulv2620_1 conn=wye bus1=p13ulv2620.1 kV=0.12 Vminpu=0.8 Vmaxpu=1.2 model=1 kW=7.195424311695203 kvar=0.7393403591586931 Phases=1 yearly=res_kw_6001_pu

New Load.load_p13ulv2620_2 conn=wye bus1=p13ulv2620.2 kV=0.12 Vminpu=0.8 Vmaxpu=1.2 model=1 kW=7.195424311695203 kvar=0.7393403591586931 Phases=1 yearly=res_kw_6001_pu

New Load.load_p13ulv2623_1 conn=wye bus1=p13ulv2623.1 kV=0.12 Vminpu=0.8 Vmaxpu=1.2 model=1 kW=6.946595855157505 kvar=1.2886653752478388 Phases=1 yearly=res_kw_3830_pu

New Load.load_p13ulv2623_2 conn=wye bus1=p13ulv2623.2 kV=0.12 Vminpu=0.8 Vmaxpu=1.2 model=1 kW=6.946595855157505 kvar=1.2886653752478388 Phases=1 yearly=res_kw_3830_pu

New Load.load_p13ulv2624_1 conn=wye bus1=p13ulv2624.1 kV=0.12 Vminpu=0.8 Vmaxpu=1.2 model=1 kW=2.314533877770899 kvar=0.9690209540566799 Phases=1 yearly=res_kw_4494_pu

New Load.load_p13ulv2624_2 conn=wye bus1=p13ulv2624.2 kV=0.12 Vminpu=0.8 Vmaxpu=1.2 model=1 kW=2.314533877770899 kvar=0.9690209540566799 Phases=1 yearly=res_kw_4494_pu

New Load.load_p13ulv2625_1 conn=wye bus1=p13ulv2625.1 kV=0.12 Vminpu=0.8 Vmaxpu=1.2 model=1 kW=14.303586925383152 kvar=3.828133726790635 Phases=1 yearly=res_kw_11410_pu

New Load.load_p13ulv2625_2 conn=wye bus1=p13ulv2625.2 kV=0.12 Vminpu=0.8 Vmaxpu=1.2 model=1 kW=14.303586925383152 kvar=3.828133726790635 Phases=1 yearly=res_kw_11410_pu

New Load.load_p13ulv2626_1 conn=wye bus1=p13ulv2626.1 kV=0.12 Vminpu=0.8 Vmaxpu=1.2 model=1 kW=5.166878214971304 kvar=1.1268665817230827 Phases=1 yearly=res_kw_2348_pu

New Load.load_p13ulv2626_2 conn=wye bus1=p13ulv2626.2 kV=0.12 Vminpu=0.8 Vmaxpu=1.2 model=1 kW=5.166878214971304 kvar=1.1268665817230827 Phases=1 yearly=res_kw_2348_pu

New Load.load_p13ulv2627_1 conn=wye bus1=p13ulv2627.1 kV=0.12 Vminpu=0.8 Vmaxpu=1.2 model=1 kW=2.66933020275041 kvar=0.7705928269131836 Phases=1 yearly=res_kw_1187_pu

New Load.load_p13ulv2627_2 conn=wye bus1=p13ulv2627.2 kV=0.12 Vminpu=0.8 Vmaxpu=1.2 model=1 kW=2.66933020275041 kvar=0.7705928269131836 Phases=1 yearly=res_kw_1187_pu

New Load.load_p13ulv2628_1 conn=wye bus1=p13ulv2628.1 kV=0.12 Vminpu=0.8 Vmaxpu=1.2 model=1 kW=5.868106964928456 kvar=1.3434372586693684 Phases=1 yearly=res_kw_6957_pu

New Load.load_p13ulv2628_2 conn=wye bus1=p13ulv2628.2 kV=0.12 Vminpu=0.8 Vmaxpu=1.2 model=1 kW=5.868106964928456 kvar=1.3434372586693684 Phases=1 yearly=res_kw_6957_pu

New Load.load_p13ulv2629_1 conn=wye bus1=p13ulv2629.1 kV=0.12 Vminpu=0.8 Vmaxpu=1.2 model=1 kW=18.916491576389305 kvar=7.695079154529365 Phases=1 yearly=res_kw_5282_pu

New Load.load_p13ulv2629_2 conn=wye bus1=p13ulv2629.2 kV=0.12 Vminpu=0.8 Vmaxpu=1.2 model=1 kW=18.916491576389305 kvar=7.695079154529365 Phases=1 yearly=res_kw_5282_pu

New Load.load_p13ulv2634_1 conn=wye bus1=p13ulv2634.1 kV=0.12 Vminpu=0.8 Vmaxpu=1.2 model=1 kW=5.2844394308809175 kvar=1.0522712324848236 Phases=1 yearly=res_kw_4549_pu

New Load.load_p13ulv2634_2 conn=wye bus1=p13ulv2634.2 kV=0.12 Vminpu=0.8 Vmaxpu=1.2 model=1 kW=5.2844394308809175 kvar=1.0522712324848236 Phases=1 yearly=res_kw_4549_pu

New Load.load_p13ulv2635_1 conn=wye bus1=p13ulv2635.1 kV=0.12 Vminpu=0.8 Vmaxpu=1.2 model=1 kW=3.2887112128735323 kvar=0.8179021603182046 Phases=1 yearly=res_kw_119_pu

New Load.load_p13ulv2635_2 conn=wye bus1=p13ulv2635.2 kV=0.12 Vminpu=0.8 Vmaxpu=1.2 model=1 kW=3.2887112128735323 kvar=0.8179021603182046 Phases=1 yearly=res_kw_119_pu

New Load.load_p13ulv2638_1 conn=wye bus1=p13ulv2638.1 kV=0.12 Vminpu=0.8 Vmaxpu=1.2 model=1 kW=8.070147370897645 kvar=1.4566904509651017 Phases=1 yearly=res_kw_13581_pu

New Load.load_p13ulv2638_2 conn=wye bus1=p13ulv2638.2 kV=0.12 Vminpu=0.8 Vmaxpu=1.2 model=1 kW=8.070147370897645 kvar=1.4566904509651017 Phases=1 yearly=res_kw_13581_pu

New Load.load_p13ulv2646_1 conn=wye bus1=p13ulv2646.1 kV=0.12 Vminpu=0.8 Vmaxpu=1.2 model=1 kW=13.055683341071184 kvar=0.6855863197420248 Phases=1 yearly=com_kw_41518_pu

New Load.load_p13ulv2646_2 conn=wye bus1=p13ulv2646.2 kV=0.12 Vminpu=0.8 Vmaxpu=1.2 model=1 kW=13.055683341071184 kvar=0.6855863197420248 Phases=1 yearly=com_kw_41518_pu

New Load.load_p13ulv2647 conn=wye bus1=p13ulv2647.1.2.3 kV=0.48 Vminpu=0.8 Vmaxpu=1.2 model=1 kW=20.189465189748482 kvar=5.7382027213366 Phases=3 yearly=com_kw_2524_pu

New Load.load_p13ulv2777 conn=wye bus1=p13ulv2777.1.2.3 kV=0.48 Vminpu=0.8 Vmaxpu=1.2 model=1 kW=35.70739807001199 kvar=9.022558122673065 Phases=3 yearly=com_kw_2599_pu

New Load.load_p13ulv2778 conn=wye bus1=p13ulv2778.1.2.3 kV=0.48 Vminpu=0.8 Vmaxpu=1.2 model=1 kW=23.12159425973 kvar=6.206291764456078 Phases=3 yearly=com_kw_39901_pu

New Load.load_p13ulv2779 conn=wye bus1=p13ulv2779.1.2.3 kV=0.48 Vminpu=0.8 Vmaxpu=1.2 model=1 kW=25.449461273012503 kvar=7.75984464591506 Phases=3 yearly=com_kw_17581_pu

New Load.load_p13ulv2780_1 conn=wye bus1=p13ulv2780.1 kV=0.12 Vminpu=0.8 Vmaxpu=1.2 model=1 kW=4.237064396976419 kvar=0.25029256707639685 Phases=1 yearly=com_kw_1949_pu

New Load.load_p13ulv2780_2 conn=wye bus1=p13ulv2780.2 kV=0.12 Vminpu=0.8 Vmaxpu=1.2 model=1 kW=4.237064396976419 kvar=0.25029256707639685 Phases=1 yearly=com_kw_1949_pu

New Load.load_p13ulv2781 conn=wye bus1=p13ulv2781.1.2.3 kV=0.48 Vminpu=0.8 Vmaxpu=1.2 model=1 kW=46.50923307104138 kvar=9.057158113139321 Phases=3 yearly=com_kw_17627_pu

New Load.load_p13ulv2783 conn=wye bus1=p13ulv2783.1.2.3 kV=0.48 Vminpu=0.8 Vmaxpu=1.2 model=1 kW=26.586264748769217 kvar=5.806808443793156 Phases=3 yearly=com_kw_1324_pu

New Load.load_p13ulv3221 conn=wye bus1=p13ulv3221.1.2.3 kV=0.48 Vminpu=0.8 Vmaxpu=1.2 model=1 kW=63.752588573776606 kvar=16.130625567913313 Phases=3 yearly=com_kw_16902_pu

New Load.load_p13ulv3222 conn=wye bus1=p13ulv3222.1.2.3 kV=0.48 Vminpu=0.8 Vmaxpu=1.2 model=1 kW=28.608677181807522 kvar=7.021903935635412 Phases=3 yearly=res_kw_946_pu

New Load.load_p13ulv3223 conn=wye bus1=p13ulv3223.1.2.3 kV=0.48 Vminpu=0.8 Vmaxpu=1.2 model=1 kW=44.28205533487908 kvar=9.112567714957102 Phases=3 yearly=res_kw_9803_pu

New Load.load_p13ulv3226 conn=wye bus1=p13ulv3226.1.2.3 kV=0.48 Vminpu=0.8 Vmaxpu=1.2 model=1 kW=45.158096257347744 kvar=7.799079745427545 Phases=3 yearly=res_kw_2295_pu

New Load.load_p13ulv3227_1 conn=wye bus1=p13ulv3227.1 kV=0.12 Vminpu=0.8 Vmaxpu=1.2 model=1 kW=3.1763367933222013 kvar=0.744581948485358 Phases=1 yearly=res_kw_10304_pu

New Load.load_p13ulv3227_2 conn=wye bus1=p13ulv3227.2 kV=0.12 Vminpu=0.8 Vmaxpu=1.2 model=1 kW=3.1763367933222013 kvar=0.744581948485358 Phases=1 yearly=res_kw_10304_pu

New Load.load_p13ulv3228_1 conn=wye bus1=p13ulv3228.1 kV=0.12 Vminpu=0.8 Vmaxpu=1.2 model=1 kW=1.7531104687117933 kvar=0.8057742721936266 Phases=1 yearly=res_kw_200_pu

New Load.load_p13ulv3228_2 conn=wye bus1=p13ulv3228.2 kV=0.12 Vminpu=0.8 Vmaxpu=1.2 model=1 kW=1.7531104687117933 kvar=0.8057742721936266 Phases=1 yearly=res_kw_200_pu

New Load.load_p13ulv3229_1 conn=wye bus1=p13ulv3229.1 kV=0.12 Vminpu=0.8 Vmaxpu=1.2 model=1 kW=4.7076276637974575 kvar=1.4384167252185296 Phases=1 yearly=com_kw_2109_pu

New Load.load_p13ulv3229_2 conn=wye bus1=p13ulv3229.2 kV=0.12 Vminpu=0.8 Vmaxpu=1.2 model=1 kW=4.7076276637974575 kvar=1.4384167252185296 Phases=1 yearly=com_kw_2109_pu

New Load.load_p13ulv28467 conn=wye bus1=p13ulv28467.1.2.3 kV=0.48 Vminpu=0.8 Vmaxpu=1.2 model=1 kW=69.20925712861376 kvar=20.47095324792556 Phases=3 yearly=res_kw_14302_pu

New Load.load_p13ulv28468_1 conn=wye bus1=p13ulv28468.1 kV=0.12 Vminpu=0.8 Vmaxpu=1.2 model=1 kW=3.623155969915922 kvar=0.37387939216687294 Phases=1 yearly=com_kw_1719_pu

New Load.load_p13ulv28468_2 conn=wye bus1=p13ulv28468.2 kV=0.12 Vminpu=0.8 Vmaxpu=1.2 model=1 kW=3.623155969915922 kvar=0.37387939216687294 Phases=1 yearly=com_kw_1719_pu

New Load.load_p13ulv28469 conn=wye bus1=p13ulv28469.1.2.3 kV=0.48 Vminpu=0.8 Vmaxpu=1.2 model=1 kW=25.53919720664608 kvar=4.722100069809899 Phases=3 yearly=res_kw_13118_pu

New Load.load_p13ulv28470_1 conn=wye bus1=p13ulv28470.1 kV=0.12 Vminpu=0.8 Vmaxpu=1.2 model=1 kW=8.134654688178234 kvar=1.688819298749867 Phases=1 yearly=res_kw_13393_pu

New Load.load_p13ulv28470_2 conn=wye bus1=p13ulv28470.2 kV=0.12 Vminpu=0.8 Vmaxpu=1.2 model=1 kW=8.134654688178234 kvar=1.688819298749867 Phases=1 yearly=res_kw_13393_pu

New Load.load_p13ulv28471 conn=wye bus1=p13ulv28471.1.2.3 kV=0.48 Vminpu=0.8 Vmaxpu=1.2 model=1 kW=68.16062367940367 kvar=17.748980941503106 Phases=3 yearly=res_kw_14078_pu

New Load.load_p13ulv28472_1 conn=wye bus1=p13ulv28472.1 kV=0.12 Vminpu=0.8 Vmaxpu=1.2 model=1 kW=9.237125495645593 kvar=0.8251508034665263 Phases=1 yearly=res_kw_11551_pu

New Load.load_p13ulv28472_2 conn=wye bus1=p13ulv28472.2 kV=0.12 Vminpu=0.8 Vmaxpu=1.2 model=1 kW=9.237125495645593 kvar=0.8251508034665263 Phases=1 yearly=res_kw_11551_pu

New Load.load_p13ulv28473_1 conn=wye bus1=p13ulv28473.1 kV=0.12 Vminpu=0.8 Vmaxpu=1.2 model=1 kW=4.237064396976419 kvar=0.25029256707639685 Phases=1 yearly=com_kw_1949_pu

New Load.load_p13ulv28473_2 conn=wye bus1=p13ulv28473.2 kV=0.12 Vminpu=0.8 Vmaxpu=1.2 model=1 kW=4.237064396976419 kvar=0.25029256707639685 Phases=1 yearly=com_kw_1949_pu

New Load.load_p13ulv28474_1 conn=wye bus1=p13ulv28474.1 kV=0.12 Vminpu=0.8 Vmaxpu=1.2 model=1 kW=4.055766634676983 kvar=1.199977165248086 Phases=1 yearly=com_kw_19714_pu

New Load.load_p13ulv28474_2 conn=wye bus1=p13ulv28474.2 kV=0.12 Vminpu=0.8 Vmaxpu=1.2 model=1 kW=4.055766634676983 kvar=1.199977165248086 Phases=1 yearly=com_kw_19714_pu

New Load.load_p13ulv28475_1 conn=wye bus1=p13ulv28475.1 kV=0.12 Vminpu=0.8 Vmaxpu=1.2 model=1 kW=3.5547898422461266 kvar=0.27769206048978734 Phases=1 yearly=com_kw_1140_pu

New Load.load_p13ulv28475_2 conn=wye bus1=p13ulv28475.2 kV=0.12 Vminpu=0.8 Vmaxpu=1.2 model=1 kW=3.5547898422461266 kvar=0.27769206048978734 Phases=1 yearly=com_kw_1140_pu

New Load.load_p13ulv28476_1 conn=wye bus1=p13ulv28476.1 kV=0.12 Vminpu=0.8 Vmaxpu=1.2 model=1 kW=4.237064396976419 kvar=0.25029256707639685 Phases=1 yearly=com_kw_1949_pu

New Load.load_p13ulv28476_2 conn=wye bus1=p13ulv28476.2 kV=0.12 Vminpu=0.8 Vmaxpu=1.2 model=1 kW=4.237064396976419 kvar=0.25029256707639685 Phases=1 yearly=com_kw_1949_pu

New Load.load_p13ulv28477_1 conn=wye bus1=p13ulv28477.1 kV=0.12 Vminpu=0.8 Vmaxpu=1.2 model=1 kW=4.237064396976419 kvar=0.25029256707639685 Phases=1 yearly=com_kw_1949_pu

New Load.load_p13ulv28477_2 conn=wye bus1=p13ulv28477.2 kV=0.12 Vminpu=0.8 Vmaxpu=1.2 model=1 kW=4.237064396976419 kvar=0.25029256707639685 Phases=1 yearly=com_kw_1949_pu

New Load.load_p13ulv28478 conn=wye bus1=p13ulv28478.1.2.3 kV=0.48 Vminpu=0.8 Vmaxpu=1.2 model=1 kW=42.66311229780539 kvar=8.039734765245404 Phases=3 yearly=res_kw_14042_pu

New Load.load_p13ulv28479_1 conn=wye bus1=p13ulv28479.1 kV=0.12 Vminpu=0.8 Vmaxpu=1.2 model=1 kW=10.254924542163067 kvar=0.6961979872098483 Phases=1 yearly=com_kw_29101_pu

New Load.load_p13ulv28479_2 conn=wye bus1=p13ulv28479.2 kV=0.12 Vminpu=0.8 Vmaxpu=1.2 model=1 kW=10.254924542163067 kvar=0.6961979872098483 Phases=1 yearly=com_kw_29101_pu

New Load.load_p13ulv28536 conn=wye bus1=p13ulv28536.1.2.3 kV=0.48 Vminpu=0.8 Vmaxpu=1.2 model=1 kW=183.1334375546961 kvar=13.481883642603425 Phases=3 yearly=com_kw_34091_pu

New Load.load_p13ulv28538 conn=wye bus1=p13ulv28538.1.2.3 kV=0.48 Vminpu=0.8 Vmaxpu=1.2 model=1 kW=61.39019882845569 kvar=10.978229600187962 Phases=3 yearly=res_kw_10989_pu

New Load.load_p13ulv28577 conn=wye bus1=p13ulv28577.1.2.3 kV=0.48 Vminpu=0.8 Vmaxpu=1.2 model=1 kW=44.29455878458918 kvar=8.912450497696593 Phases=3 yearly=com_kw_41573_pu

New Load.load_p13ulv28578 conn=wye bus1=p13ulv28578.1.2.3 kV=0.48 Vminpu=0.8 Vmaxpu=1.2 model=1 kW=46.78181887674513 kvar=12.55942927662171 Phases=3 yearly=com_kw_39817_pu

New Load.load_p13ulv28579_1 conn=wye bus1=p13ulv28579.1 kV=0.12 Vminpu=0.8 Vmaxpu=1.2 model=1 kW=4.237064396976419 kvar=0.25029256707639685 Phases=1 yearly=com_kw_1949_pu

New Load.load_p13ulv28579_2 conn=wye bus1=p13ulv28579.2 kV=0.12 Vminpu=0.8 Vmaxpu=1.2 model=1 kW=4.237064396976419 kvar=0.25029256707639685 Phases=1 yearly=com_kw_1949_pu

New Load.load_p13ulv28580 conn=wye bus1=p13ulv28580.1.2.3 kV=0.48 Vminpu=0.8 Vmaxpu=1.2 model=1 kW=57.14073045684962 kvar=15.51834802178335 Phases=3 yearly=com_kw_2209_pu

New Load.load_p13ulv28582 conn=wye bus1=p13ulv28582.1.2.3 kV=0.48 Vminpu=0.8 Vmaxpu=1.2 model=1 kW=46.69426404505174 kvar=11.536785082814037 Phases=3 yearly=com_kw_8406_pu

New Load.load_p13ulv28583 conn=wye bus1=p13ulv28582.1.2.3 kV=0.48 Vminpu=0.8 Vmaxpu=1.2 model=1 kW=19.888602737190393 kvar=5.237265432207811 Phases=3 yearly=com_kw_29439_pu

New Load.load_p13ulv28584_1 conn=wye bus1=p13ulv28584.1 kV=0.12 Vminpu=0.8 Vmaxpu=1.2 model=1 kW=5.484916101426202 kvar=1.6302549722872932 Phases=1 yearly=com_kw_20964_pu

New Load.load_p13ulv28584_2 conn=wye bus1=p13ulv28584.2 kV=0.12 Vminpu=0.8 Vmaxpu=1.2 model=1 kW=5.484916101426202 kvar=1.6302549722872932 Phases=1 yearly=com_kw_20964_pu

New Load.load_p13ulv28590 conn=wye bus1=p13ulv28590.1.2.3 kV=0.48 Vminpu=0.8 Vmaxpu=1.2 model=1 kW=69.88060772799183 kvar=16.075053964188527 Phases=3 yearly=com_kw_2467_pu

New Load.load_p13ulv28591 conn=wye bus1=p13ulv28591.1.2.3 kV=0.48 Vminpu=0.8 Vmaxpu=1.2 model=1 kW=167.5144797020838 kvar=43.33478032853835 Phases=3 yearly=res_kw_3123_pu

New Load.load_p13ulv28592_1 conn=wye bus1=p13ulv28592.1 kV=0.12 Vminpu=0.8 Vmaxpu=1.2 model=1 kW=3.8655418025949513 kvar=0.5198334692942316 Phases=1 yearly=com_kw_2773_pu

New Load.load_p13ulv28592_2 conn=wye bus1=p13ulv28592.2 kV=0.12 Vminpu=0.8 Vmaxpu=1.2 model=1 kW=3.8655418025949513 kvar=0.5198334692942316 Phases=1 yearly=com_kw_2773_pu

New Load.load_p13ulv28593_1 conn=wye bus1=p13ulv28593.1 kV=0.12 Vminpu=0.8 Vmaxpu=1.2 model=1 kW=1.8549344929907248 kvar=0.5062867175782112 Phases=1 yearly=com_kw_41699_pu

New Load.load_p13ulv28593_2 conn=wye bus1=p13ulv28593.2 kV=0.12 Vminpu=0.8 Vmaxpu=1.2 model=1 kW=1.8549344929907248 kvar=0.5062867175782112 Phases=1 yearly=com_kw_41699_pu

New Load.load_p13ulv28594_1 conn=wye bus1=p13ulv28594.1 kV=0.12 Vminpu=0.8 Vmaxpu=1.2 model=1 kW=4.143014644155465 kvar=0.12592406622934427 Phases=1 yearly=com_kw_29517_pu

New Load.load_p13ulv28594_2 conn=wye bus1=p13ulv28594.2 kV=0.12 Vminpu=0.8 Vmaxpu=1.2 model=1 kW=4.143014644155465 kvar=0.12592406622934427 Phases=1 yearly=com_kw_29517_pu

New Load.load_p13ulv28595 conn=wye bus1=p13ulv28595.1.2.3 kV=0.48 Vminpu=0.8 Vmaxpu=1.2 model=1 kW=79.13703525595344 kvar=22.360611502292883 Phases=3 yearly=com_kw_39940_pu

New Load.load_p13ulv28596 conn=wye bus1=p13ulv28596.1.2.3 kV=0.48 Vminpu=0.8 Vmaxpu=1.2 model=1 kW=45.542905102781035 kvar=11.734933593933606 Phases=3 yearly=com_kw_39793_pu

New Load.load_p13ulv28598 conn=wye bus1=p13ulv28598.1.2.3 kV=0.48 Vminpu=0.8 Vmaxpu=1.2 model=1 kW=90.37760984420437 kvar=5.641057891597999 Phases=3 yearly=com_kw_33896_pu

New Load.load_p13ulv28599 conn=wye bus1=p13ulv28599.1.2.3 kV=0.48 Vminpu=0.8 Vmaxpu=1.2 model=1 kW=164.20097634792518 kvar=46.88951043626426 Phases=3 yearly=com_kw_1273_pu

New Load.load_p13ulv28600 conn=wye bus1=p13ulv28600.1.2.3 kV=0.48 Vminpu=0.8 Vmaxpu=1.2 model=1 kW=65.22034466410409 kvar=13.520042488677865 Phases=3 yearly=com_kw_1587_pu

New Load.load_p13ulv28601 conn=wye bus1=p13ulv28600.1.2.3 kV=0.48 Vminpu=0.8 Vmaxpu=1.2 model=1 kW=36.40154732847409 kvar=2.629296160370534 Phases=3 yearly=com_kw_17434_pu

New Load.load_p13ulv28602 conn=wye bus1=p13ulv28602.1.2.3 kV=0.48 Vminpu=0.8 Vmaxpu=1.2 model=1 kW=41.93685991876052 kvar=18.249976208138364 Phases=3 yearly=res_kw_5327_pu

New Load.load_p13ulv28603 conn=wye bus1=p13ulv28603.1.2.3 kV=0.48 Vminpu=0.8 Vmaxpu=1.2 model=1 kW=134.5329704227732 kvar=40.07029740613583 Phases=3 yearly=com_kw_33209_pu

New Load.load_p13ulv28805_1 conn=wye bus1=p13ulv28805.1 kV=0.12 Vminpu=0.8 Vmaxpu=1.2 model=1 kW=2.1383669294427556 kvar=0.9111586935574751 Phases=1 yearly=res_kw_5301_pu

New Load.load_p13ulv28805_2 conn=wye bus1=p13ulv28805.2 kV=0.12 Vminpu=0.8 Vmaxpu=1.2 model=1 kW=2.1383669294427556 kvar=0.9111586935574751 Phases=1 yearly=res_kw_5301_pu

New Load.load_p13ulv28806_1 conn=wye bus1=p13ulv28806.1 kV=0.12 Vminpu=0.8 Vmaxpu=1.2 model=1 kW=4.630004160996862 kvar=0.8460073515265234 Phases=1 yearly=res_kw_10888_pu

New Load.load_p13ulv28806_2 conn=wye bus1=p13ulv28806.2 kV=0.12 Vminpu=0.8 Vmaxpu=1.2 model=1 kW=4.630004160996862 kvar=0.8460073515265234 Phases=1 yearly=res_kw_10888_pu

New Load.load_p13ulv28807_1 conn=wye bus1=p13ulv28807.1 kV=0.12 Vminpu=0.8 Vmaxpu=1.2 model=1 kW=3.8428615783023226 kvar=0.9549159919176691 Phases=1 yearly=res_kw_11951_pu

New Load.load_p13ulv28807_2 conn=wye bus1=p13ulv28807.2 kV=0.12 Vminpu=0.8 Vmaxpu=1.2 model=1 kW=3.8428615783023226 kvar=0.9549159919176691 Phases=1 yearly=res_kw_11951_pu

New Load.load_p13ulv28808_1 conn=wye bus1=p13ulv28808.1 kV=0.12 Vminpu=0.8 Vmaxpu=1.2 model=1 kW=8.887500479518994 kvar=1.583890866298552 Phases=1 yearly=res_kw_3091_pu

New Load.load_p13ulv28808_2 conn=wye bus1=p13ulv28808.2 kV=0.12 Vminpu=0.8 Vmaxpu=1.2 model=1 kW=8.887500479518994 kvar=1.583890866298552 Phases=1 yearly=res_kw_3091_pu

New Load.load_p13ulv28809_1 conn=wye bus1=p13ulv28808.1 kV=0.12 Vminpu=0.8 Vmaxpu=1.2 model=1 kW=3.73936614616732 kvar=1.153046722921111 Phases=1 yearly=res_kw_11966_pu

New Load.load_p13ulv28809_2 conn=wye bus1=p13ulv28808.2 kV=0.12 Vminpu=0.8 Vmaxpu=1.2 model=1 kW=3.73936614616732 kvar=1.153046722921111 Phases=1 yearly=res_kw_11966_pu

New Load.load_p13ulv28810_1 conn=wye bus1=p13ulv28810.1 kV=0.12 Vminpu=0.8 Vmaxpu=1.2 model=1 kW=4.853836656305012 kvar=0.9812859376770546 Phases=1 yearly=res_kw_13760_pu

New Load.load_p13ulv28810_2 conn=wye bus1=p13ulv28810.2 kV=0.12 Vminpu=0.8 Vmaxpu=1.2 model=1 kW=4.853836656305012 kvar=0.9812859376770546 Phases=1 yearly=res_kw_13760_pu

New Load.load_p13ulv28811_1 conn=wye bus1=p13ulv28811.1 kV=0.12 Vminpu=0.8 Vmaxpu=1.2 model=1 kW=8.657248104009 kvar=2.1063514271697614 Phases=1 yearly=res_kw_3863_pu

New Load.load_p13ulv28811_2 conn=wye bus1=p13ulv28811.2 kV=0.12 Vminpu=0.8 Vmaxpu=1.2 model=1 kW=8.657248104009 kvar=2.1063514271697614 Phases=1 yearly=res_kw_3863_pu

New Load.load_p13ulv28812_1 conn=wye bus1=p13ulv28812.1 kV=0.12 Vminpu=0.8 Vmaxpu=1.2 model=1 kW=3.49550287357003 kvar=1.5407925206587947 Phases=1 yearly=res_kw_6895_pu

New Load.load_p13ulv28812_2 conn=wye bus1=p13ulv28812.2 kV=0.12 Vminpu=0.8 Vmaxpu=1.2 model=1 kW=3.49550287357003 kvar=1.5407925206587947 Phases=1 yearly=res_kw_6895_pu

New Load.load_p13ulv28813_1 conn=wye bus1=p13ulv28813.1 kV=0.12 Vminpu=0.8 Vmaxpu=1.2 model=1 kW=3.768875123417728 kvar=1.0494054663336483 Phases=1 yearly=res_kw_1444_pu

New Load.load_p13ulv28813_2 conn=wye bus1=p13ulv28813.2 kV=0.12 Vminpu=0.8 Vmaxpu=1.2 model=1 kW=3.768875123417728 kvar=1.0494054663336483 Phases=1 yearly=res_kw_1444_pu

New Load.load_p13ulv28814_1 conn=wye bus1=p13ulv28814.1 kV=0.12 Vminpu=0.8 Vmaxpu=1.2 model=1 kW=19.36940891418324 kvar=7.889537753674508 Phases=1 yearly=res_kw_10361_pu

New Load.load_p13ulv28814_2 conn=wye bus1=p13ulv28814.2 kV=0.12 Vminpu=0.8 Vmaxpu=1.2 model=1 kW=19.36940891418324 kvar=7.889537753674508 Phases=1 yearly=res_kw_10361_pu

New Load.load_p13ulv28815_1 conn=wye bus1=p13ulv28815.1 kV=0.12 Vminpu=0.8 Vmaxpu=1.2 model=1 kW=5.183716142241537 kvar=1.2666658535858797 Phases=1 yearly=res_kw_12082_pu

New Load.load_p13ulv28815_2 conn=wye bus1=p13ulv28815.2 kV=0.12 Vminpu=0.8 Vmaxpu=1.2 model=1 kW=5.183716142241537 kvar=1.2666658535858797 Phases=1 yearly=res_kw_12082_pu

New Load.load_p13ulv28816_1 conn=wye bus1=p13ulv28816.1 kV=0.12 Vminpu=0.8 Vmaxpu=1.2 model=1 kW=6.434381247431111 kvar=1.2435244633446798 Phases=1 yearly=res_kw_13124_pu

New Load.load_p13ulv28816_2 conn=wye bus1=p13ulv28816.2 kV=0.12 Vminpu=0.8 Vmaxpu=1.2 model=1 kW=6.434381247431111 kvar=1.2435244633446798 Phases=1 yearly=res_kw_13124_pu

New Load.load_p13ulv28817_1 conn=wye bus1=p13ulv28817.1 kV=0.12 Vminpu=0.8 Vmaxpu=1.2 model=1 kW=2.3870849519920267 kvar=0.9718887619447968 Phases=1 yearly=res_kw_2251_pu

New Load.load_p13ulv28817_2 conn=wye bus1=p13ulv28817.2 kV=0.12 Vminpu=0.8 Vmaxpu=1.2 model=1 kW=2.3870849519920267 kvar=0.9718887619447968 Phases=1 yearly=res_kw_2251_pu

New Load.load_p13ulv28818_1 conn=wye bus1=p13ulv28818.1 kV=0.12 Vminpu=0.8 Vmaxpu=1.2 model=1 kW=1.230722763557964 kvar=0.2573754543558503 Phases=1 yearly=res_kw_11800_pu

New Load.load_p13ulv28818_2 conn=wye bus1=p13ulv28818.2 kV=0.12 Vminpu=0.8 Vmaxpu=1.2 model=1 kW=1.230722763557964 kvar=0.2573754543558503 Phases=1 yearly=res_kw_11800_pu

New Load.load_p13ulv28819_1 conn=wye bus1=p13ulv28819.1 kV=0.12 Vminpu=0.8 Vmaxpu=1.2 model=1 kW=1.6218310598711032 kvar=0.6386635421756082 Phases=1 yearly=res_kw_12148_pu

New Load.load_p13ulv28819_2 conn=wye bus1=p13ulv28819.2 kV=0.12 Vminpu=0.8 Vmaxpu=1.2 model=1 kW=1.6218310598711032 kvar=0.6386635421756082 Phases=1 yearly=res_kw_12148_pu

New Load.load_p13ulv28820 conn=wye bus1=p13ulv28820.1.2.3 kV=0.48 Vminpu=0.8 Vmaxpu=1.2 model=1 kW=76.64303821663538 kvar=25.63159617557465 Phases=3 yearly=com_kw_8481_pu

New Load.load_p13ulv28821_1 conn=wye bus1=p13ulv28821.1 kV=0.12 Vminpu=0.8 Vmaxpu=1.2 model=1 kW=6.248584313025809 kvar=1.2491610077411264 Phases=1 yearly=res_kw_3993_pu

New Load.load_p13ulv28821_2 conn=wye bus1=p13ulv28821.2 kV=0.12 Vminpu=0.8 Vmaxpu=1.2 model=1 kW=6.248584313025809 kvar=1.2491610077411264 Phases=1 yearly=res_kw_3993_pu

New Load.load_p13ulv28822_1 conn=wye bus1=p13ulv28822.1 kV=0.12 Vminpu=0.8 Vmaxpu=1.2 model=1 kW=3.5550713895719452 kvar=0.8002362893361499 Phases=1 yearly=res_kw_6237_pu

New Load.load_p13ulv28822_2 conn=wye bus1=p13ulv28822.2 kV=0.12 Vminpu=0.8 Vmaxpu=1.2 model=1 kW=3.5550713895719452 kvar=0.8002362893361499 Phases=1 yearly=res_kw_6237_pu

New Load.load_p13ulv28823_1 conn=wye bus1=p13ulv28823.1 kV=0.12 Vminpu=0.8 Vmaxpu=1.2 model=1 kW=3.643351111015029 kvar=0.6662335064403426 Phases=1 yearly=res_kw_13705_pu

New Load.load_p13ulv28823_2 conn=wye bus1=p13ulv28823.2 kV=0.12 Vminpu=0.8 Vmaxpu=1.2 model=1 kW=3.643351111015029 kvar=0.6662335064403426 Phases=1 yearly=res_kw_13705_pu

New Load.load_p13ulv28824_1 conn=wye bus1=p13ulv28824.1 kV=0.12 Vminpu=0.8 Vmaxpu=1.2 model=1 kW=2.6400982870935055 kvar=0.6029930298758219 Phases=1 yearly=res_kw_5685_pu

New Load.load_p13ulv28824_2 conn=wye bus1=p13ulv28824.2 kV=0.12 Vminpu=0.8 Vmaxpu=1.2 model=1 kW=2.6400982870935055 kvar=0.6029930298758219 Phases=1 yearly=res_kw_5685_pu

New Load.load_p13ulv28825_1 conn=wye bus1=p13ulv28825.1 kV=0.12 Vminpu=0.8 Vmaxpu=1.2 model=1 kW=4.561468034786517 kvar=1.0348880322472904 Phases=1 yearly=res_kw_712_pu

New Load.load_p13ulv28825_2 conn=wye bus1=p13ulv28825.2 kV=0.12 Vminpu=0.8 Vmaxpu=1.2 model=1 kW=4.561468034786517 kvar=1.0348880322472904 Phases=1 yearly=res_kw_712_pu

New Load.load_p13ulv28826_1 conn=wye bus1=p13ulv28826.1 kV=0.12 Vminpu=0.8 Vmaxpu=1.2 model=1 kW=2.965698991960231 kvar=0.9240776131155559 Phases=1 yearly=res_kw_10202_pu

New Load.load_p13ulv28826_2 conn=wye bus1=p13ulv28826.2 kV=0.12 Vminpu=0.8 Vmaxpu=1.2 model=1 kW=2.965698991960231 kvar=0.9240776131155559 Phases=1 yearly=res_kw_10202_pu

New Load.load_p13ulv28827_1 conn=wye bus1=p13ulv28827.1 kV=0.12 Vminpu=0.8 Vmaxpu=1.2 model=1 kW=23.716187115493902 kvar=4.97879458262134 Phases=1 yearly=res_kw_12189_pu

New Load.load_p13ulv28827_2 conn=wye bus1=p13ulv28827.2 kV=0.12 Vminpu=0.8 Vmaxpu=1.2 model=1 kW=23.716187115493902 kvar=4.97879458262134 Phases=1 yearly=res_kw_12189_pu

New Load.load_p13ulv28828_1 conn=wye bus1=p13ulv28828.1 kV=0.12 Vminpu=0.8 Vmaxpu=1.2 model=1 kW=14.60331726733357 kvar=6.424022417858148 Phases=1 yearly=res_kw_14352_pu

New Load.load_p13ulv28828_2 conn=wye bus1=p13ulv28828.2 kV=0.12 Vminpu=0.8 Vmaxpu=1.2 model=1 kW=14.60331726733357 kvar=6.424022417858148 Phases=1 yearly=res_kw_14352_pu

New Load.load_p13ulv28829_1 conn=wye bus1=p13ulv28829.1 kV=0.12 Vminpu=0.8 Vmaxpu=1.2 model=1 kW=6.070598195096481 kvar=3.12909482351946 Phases=1 yearly=res_kw_6784_pu

New Load.load_p13ulv28829_2 conn=wye bus1=p13ulv28829.2 kV=0.12 Vminpu=0.8 Vmaxpu=1.2 model=1 kW=6.070598195096481 kvar=3.12909482351946 Phases=1 yearly=res_kw_6784_pu

New Load.load_p13ulv28830_1 conn=wye bus1=p13ulv28830.1 kV=0.12 Vminpu=0.8 Vmaxpu=1.2 model=1 kW=3.9668926296917104 kvar=0.8407780468588406 Phases=1 yearly=res_kw_1662_pu

New Load.load_p13ulv28830_2 conn=wye bus1=p13ulv28830.2 kV=0.12 Vminpu=0.8 Vmaxpu=1.2 model=1 kW=3.9668926296917104 kvar=0.8407780468588406 Phases=1 yearly=res_kw_1662_pu

New Load.load_p13ulv28831_1 conn=wye bus1=p13ulv28831.1 kV=0.12 Vminpu=0.8 Vmaxpu=1.2 model=1 kW=4.561468034786517 kvar=1.0348880322472904 Phases=1 yearly=res_kw_712_pu

New Load.load_p13ulv28831_2 conn=wye bus1=p13ulv28831.2 kV=0.12 Vminpu=0.8 Vmaxpu=1.2 model=1 kW=4.561468034786517 kvar=1.0348880322472904 Phases=1 yearly=res_kw_712_pu

New Load.load_p13ulv28832_1 conn=wye bus1=p13ulv28832.1 kV=0.12 Vminpu=0.8 Vmaxpu=1.2 model=1 kW=6.434381247431111 kvar=1.2435244633446798 Phases=1 yearly=res_kw_13124_pu

New Load.load_p13ulv28832_2 conn=wye bus1=p13ulv28832.2 kV=0.12 Vminpu=0.8 Vmaxpu=1.2 model=1 kW=6.434381247431111 kvar=1.2435244633446798 Phases=1 yearly=res_kw_13124_pu

New Load.load_p13ulv28833_1 conn=wye bus1=p13ulv28833.1 kV=0.12 Vminpu=0.8 Vmaxpu=1.2 model=1 kW=3.8508726747371775 kvar=1.4075514013755541 Phases=1 yearly=res_kw_4692_pu

New Load.load_p13ulv28833_2 conn=wye bus1=p13ulv28833.2 kV=0.12 Vminpu=0.8 Vmaxpu=1.2 model=1 kW=3.8508726747371775 kvar=1.4075514013755541 Phases=1 yearly=res_kw_4692_pu

New Load.load_p13ulv28834_1 conn=wye bus1=p13ulv28834.1 kV=0.12 Vminpu=0.8 Vmaxpu=1.2 model=1 kW=6.981376066458304 kvar=2.33981156193919 Phases=1 yearly=res_kw_4982_pu

New Load.load_p13ulv28834_2 conn=wye bus1=p13ulv28834.2 kV=0.12 Vminpu=0.8 Vmaxpu=1.2 model=1 kW=6.981376066458304 kvar=2.33981156193919 Phases=1 yearly=res_kw_4982_pu

New Load.load_p13ulv28835_1 conn=wye bus1=p13ulv28835.1 kV=0.12 Vminpu=0.8 Vmaxpu=1.2 model=1 kW=13.490707485482277 kvar=0.45106225102569736 Phases=1 yearly=res_kw_9152_pu

New Load.load_p13ulv28835_2 conn=wye bus1=p13ulv28835.2 kV=0.12 Vminpu=0.8 Vmaxpu=1.2 model=1 kW=13.490707485482277 kvar=0.45106225102569736 Phases=1 yearly=res_kw_9152_pu

New Load.load_p13ulv28836_1 conn=wye bus1=p13ulv28836.1 kV=0.12 Vminpu=0.8 Vmaxpu=1.2 model=1 kW=4.298732967846568 kvar=1.4010470651986036 Phases=1 yearly=res_kw_8466_pu

New Load.load_p13ulv28836_2 conn=wye bus1=p13ulv28836.2 kV=0.12 Vminpu=0.8 Vmaxpu=1.2 model=1 kW=4.298732967846568 kvar=1.4010470651986036 Phases=1 yearly=res_kw_8466_pu

New Load.load_p13ulv28837_1 conn=wye bus1=p13ulv28837.1 kV=0.12 Vminpu=0.8 Vmaxpu=1.2 model=1 kW=2.1383669294427556 kvar=0.9111586935574751 Phases=1 yearly=res_kw_5301_pu

New Load.load_p13ulv28837_2 conn=wye bus1=p13ulv28837.2 kV=0.12 Vminpu=0.8 Vmaxpu=1.2 model=1 kW=2.1383669294427556 kvar=0.9111586935574751 Phases=1 yearly=res_kw_5301_pu

New Load.load_p13ulv28838_1 conn=wye bus1=p13ulv28838.1 kV=0.12 Vminpu=0.8 Vmaxpu=1.2 model=1 kW=4.80943671944097 kvar=0.33228100650024006 Phases=1 yearly=res_kw_501_pu

New Load.load_p13ulv28838_2 conn=wye bus1=p13ulv28838.2 kV=0.12 Vminpu=0.8 Vmaxpu=1.2 model=1 kW=4.80943671944097 kvar=0.33228100650024006 Phases=1 yearly=res_kw_501_pu

New Load.load_p13ulv28839_1 conn=wye bus1=p13ulv28839.1 kV=0.12 Vminpu=0.8 Vmaxpu=1.2 model=1 kW=4.797870482826747 kvar=0.26067930884763163 Phases=1 yearly=res_kw_13811_pu

New Load.load_p13ulv28839_2 conn=wye bus1=p13ulv28839.2 kV=0.12 Vminpu=0.8 Vmaxpu=1.2 model=1 kW=4.797870482826747 kvar=0.26067930884763163 Phases=1 yearly=res_kw_13811_pu

New Load.load_p13ulv28840_1 conn=wye bus1=p13ulv28840.1 kV=0.12 Vminpu=0.8 Vmaxpu=1.2 model=1 kW=15.010859610377985 kvar=3.434154648999638 Phases=1 yearly=res_kw_5307_pu

New Load.load_p13ulv28840_2 conn=wye bus1=p13ulv28840.2 kV=0.12 Vminpu=0.8 Vmaxpu=1.2 model=1 kW=15.010859610377985 kvar=3.434154648999638 Phases=1 yearly=res_kw_5307_pu

New Load.load_p13ulv28841_1 conn=wye bus1=p13ulv28841.1 kV=0.12 Vminpu=0.8 Vmaxpu=1.2 model=1 kW=7.393517159365113 kvar=1.5396474285514203 Phases=1 yearly=res_kw_5207_pu

New Load.load_p13ulv28841_2 conn=wye bus1=p13ulv28841.2 kV=0.12 Vminpu=0.8 Vmaxpu=1.2 model=1 kW=7.393517159365113 kvar=1.5396474285514203 Phases=1 yearly=res_kw_5207_pu

New Load.load_p13ulv28842_1 conn=wye bus1=p13ulv28842.1 kV=0.12 Vminpu=0.8 Vmaxpu=1.2 model=1 kW=2.6698616829391977 kvar=0.7074104341604033 Phases=1 yearly=res_kw_7043_pu

New Load.load_p13ulv28842_2 conn=wye bus1=p13ulv28842.2 kV=0.12 Vminpu=0.8 Vmaxpu=1.2 model=1 kW=2.6698616829391977 kvar=0.7074104341604033 Phases=1 yearly=res_kw_7043_pu

New Load.load_p13ulv28843_1 conn=wye bus1=p13ulv28843.1 kV=0.12 Vminpu=0.8 Vmaxpu=1.2 model=1 kW=24.26666071604699 kvar=0.3390707199597476 Phases=1 yearly=res_kw_12316_pu

New Load.load_p13ulv28843_2 conn=wye bus1=p13ulv28843.2 kV=0.12 Vminpu=0.8 Vmaxpu=1.2 model=1 kW=24.26666071604699 kvar=0.3390707199597476 Phases=1 yearly=res_kw_12316_pu

New Load.load_p13ulv28844_1 conn=wye bus1=p13ulv28844.1 kV=0.12 Vminpu=0.8 Vmaxpu=1.2 model=1 kW=1.259435522165572 kvar=0.6242760147376691 Phases=1 yearly=res_kw_11424_pu

New Load.load_p13ulv28844_2 conn=wye bus1=p13ulv28844.2 kV=0.12 Vminpu=0.8 Vmaxpu=1.2 model=1 kW=1.259435522165572 kvar=0.6242760147376691 Phases=1 yearly=res_kw_11424_pu

New Load.load_p13ulv28845_1 conn=wye bus1=p13ulv28845.1 kV=0.12 Vminpu=0.8 Vmaxpu=1.2 model=1 kW=4.050872862580548 kvar=1.6460928484694917 Phases=1 yearly=res_kw_9781_pu

New Load.load_p13ulv28845_2 conn=wye bus1=p13ulv28845.2 kV=0.12 Vminpu=0.8 Vmaxpu=1.2 model=1 kW=4.050872862580548 kvar=1.6460928484694917 Phases=1 yearly=res_kw_9781_pu

New Load.load_p13ulv28846_1 conn=wye bus1=p13ulv28845.1 kV=0.12 Vminpu=0.8 Vmaxpu=1.2 model=1 kW=2.691481166059273 kvar=0.7487164293376141 Phases=1 yearly=res_kw_10756_pu

New Load.load_p13ulv28846_2 conn=wye bus1=p13ulv28845.2 kV=0.12 Vminpu=0.8 Vmaxpu=1.2 model=1 kW=2.691481166059273 kvar=0.7487164293376141 Phases=1 yearly=res_kw_10756_pu

New Load.load_p13ulv28847_1 conn=wye bus1=p13ulv28847.1 kV=0.12 Vminpu=0.8 Vmaxpu=1.2 model=1 kW=3.099660274217936 kvar=1.1369612052532363 Phases=1 yearly=res_kw_14119_pu

New Load.load_p13ulv28847_2 conn=wye bus1=p13ulv28847.2 kV=0.12 Vminpu=0.8 Vmaxpu=1.2 model=1 kW=3.099660274217936 kvar=1.1369612052532363 Phases=1 yearly=res_kw_14119_pu

New Load.load_p13ulv28848_1 conn=wye bus1=p13ulv28848.1 kV=0.12 Vminpu=0.8 Vmaxpu=1.2 model=1 kW=5.823766422694063 kvar=1.6806383057986853 Phases=1 yearly=res_kw_7757_pu

New Load.load_p13ulv28848_2 conn=wye bus1=p13ulv28848.2 kV=0.12 Vminpu=0.8 Vmaxpu=1.2 model=1 kW=5.823766422694063 kvar=1.6806383057986853 Phases=1 yearly=res_kw_7757_pu

New Load.load_p13ulv28849_1 conn=wye bus1=p13ulv28849.1 kV=0.12 Vminpu=0.8 Vmaxpu=1.2 model=1 kW=3.5011351324961177 kvar=0.33596736469701294 Phases=1 yearly=res_kw_1150_pu

New Load.load_p13ulv28849_2 conn=wye bus1=p13ulv28849.2 kV=0.12 Vminpu=0.8 Vmaxpu=1.2 model=1 kW=3.5011351324961177 kvar=0.33596736469701294 Phases=1 yearly=res_kw_1150_pu

New Load.load_p13ulv28850_1 conn=wye bus1=p13ulv28850.1 kV=0.12 Vminpu=0.8 Vmaxpu=1.2 model=1 kW=20.74716170190051 kvar=3.42076420624453 Phases=1 yearly=res_kw_13287_pu

New Load.load_p13ulv28850_2 conn=wye bus1=p13ulv28850.2 kV=0.12 Vminpu=0.8 Vmaxpu=1.2 model=1 kW=20.74716170190051 kvar=3.42076420624453 Phases=1 yearly=res_kw_13287_pu

New Load.load_p13ulv28851_1 conn=wye bus1=p13ulv28851.1 kV=0.12 Vminpu=0.8 Vmaxpu=1.2 model=1 kW=4.86294663255661 kvar=0.3017265649675267 Phases=1 yearly=res_kw_4599_pu

New Load.load_p13ulv28851_2 conn=wye bus1=p13ulv28851.2 kV=0.12 Vminpu=0.8 Vmaxpu=1.2 model=1 kW=4.86294663255661 kvar=0.3017265649675267 Phases=1 yearly=res_kw_4599_pu

New Load.load_p13ulv28852_1 conn=wye bus1=p13ulv28852.1 kV=0.12 Vminpu=0.8 Vmaxpu=1.2 model=1 kW=3.5127978636027604 kvar=0.9794275484237299 Phases=1 yearly=res_kw_12216_pu

New Load.load_p13ulv28852_2 conn=wye bus1=p13ulv28852.2 kV=0.12 Vminpu=0.8 Vmaxpu=1.2 model=1 kW=3.5127978636027604 kvar=0.9794275484237299 Phases=1 yearly=res_kw_12216_pu

New Load.load_p13ulv28853_1 conn=wye bus1=p13ulv28853.1 kV=0.12 Vminpu=0.8 Vmaxpu=1.2 model=1 kW=3.8655418025949513 kvar=0.5198334692942316 Phases=1 yearly=com_kw_2773_pu

New Load.load_p13ulv28853_2 conn=wye bus1=p13ulv28853.2 kV=0.12 Vminpu=0.8 Vmaxpu=1.2 model=1 kW=3.8655418025949513 kvar=0.5198334692942316 Phases=1 yearly=com_kw_2773_pu

New Load.load_p13ulv28854_1 conn=wye bus1=p13ulv28854.1 kV=0.12 Vminpu=0.8 Vmaxpu=1.2 model=1 kW=4.394091735593318 kvar=1.8458802597684576 Phases=1 yearly=res_kw_10020_pu

New Load.load_p13ulv28854_2 conn=wye bus1=p13ulv28854.2 kV=0.12 Vminpu=0.8 Vmaxpu=1.2 model=1 kW=4.394091735593318 kvar=1.8458802597684576 Phases=1 yearly=res_kw_10020_pu

New Load.load_p13ulv28855_1 conn=wye bus1=p13ulv28855.1 kV=0.12 Vminpu=0.8 Vmaxpu=1.2 model=1 kW=3.5127978636027604 kvar=0.9794275484237299 Phases=1 yearly=res_kw_12216_pu

New Load.load_p13ulv28855_2 conn=wye bus1=p13ulv28855.2 kV=0.12 Vminpu=0.8 Vmaxpu=1.2 model=1 kW=3.5127978636027604 kvar=0.9794275484237299 Phases=1 yearly=res_kw_12216_pu

New Load.load_p13ulv28856 conn=wye bus1=p13ulv28856.1.2.3 kV=0.48 Vminpu=0.8 Vmaxpu=1.2 model=1 kW=130.00754626694916 kvar=40.213467804456656 Phases=3 yearly=com_kw_34196_pu

New Load.load_p13ulv28857 conn=wye bus1=p13ulv28857.1.2.3 kV=0.48 Vminpu=0.8 Vmaxpu=1.2 model=1 kW=137.05489691915741 kvar=6.366794179887937 Phases=3 yearly=com_kw_1931_pu

New Load.load_p13ulv28858 conn=wye bus1=p13ulv28858.1.2.3 kV=0.48 Vminpu=0.8 Vmaxpu=1.2 model=1 kW=20.185834533991326 kvar=5.5132574469004805 Phases=3 yearly=com_kw_34448_pu

New Load.load_p13ulv28859_1 conn=wye bus1=p13ulv28859.1 kV=0.12 Vminpu=0.8 Vmaxpu=1.2 model=1 kW=5.068206643661368 kvar=0.5639151348105343 Phases=1 yearly=com_kw_19675_pu

New Load.load_p13ulv28859_2 conn=wye bus1=p13ulv28859.2 kV=0.12 Vminpu=0.8 Vmaxpu=1.2 model=1 kW=5.068206643661368 kvar=0.5639151348105343 Phases=1 yearly=com_kw_19675_pu

New Load.load_p13ulv28860 conn=wye bus1=p13ulv28860.1.2.3 kV=0.48 Vminpu=0.8 Vmaxpu=1.2 model=1 kW=137.93720765180325 kvar=41.59453849579754 Phases=3 yearly=com_kw_31655_pu

New Load.load_p13ulv28861_1 conn=wye bus1=p13ulv28861.1 kV=0.12 Vminpu=0.8 Vmaxpu=1.2 model=1 kW=12.424073901041934 kvar=1.7341720741210658 Phases=1 yearly=res_kw_11404_pu

New Load.load_p13ulv28861_2 conn=wye bus1=p13ulv28861.2 kV=0.12 Vminpu=0.8 Vmaxpu=1.2 model=1 kW=12.424073901041934 kvar=1.7341720741210658 Phases=1 yearly=res_kw_11404_pu

New Load.load_p13ulv28862_1 conn=wye bus1=p13ulv28862.1 kV=0.12 Vminpu=0.8 Vmaxpu=1.2 model=1 kW=4.013992703229786 kvar=0.0951464885764126 Phases=1 yearly=res_kw_6166_pu

New Load.load_p13ulv28862_2 conn=wye bus1=p13ulv28862.2 kV=0.12 Vminpu=0.8 Vmaxpu=1.2 model=1 kW=4.013992703229786 kvar=0.0951464885764126 Phases=1 yearly=res_kw_6166_pu

New Load.load_p13ulv28863_1 conn=wye bus1=p13ulv28863.1 kV=0.12 Vminpu=0.8 Vmaxpu=1.2 model=1 kW=9.980822831463684 kvar=0.4836710576660136 Phases=1 yearly=res_kw_2149_pu

New Load.load_p13ulv28863_2 conn=wye bus1=p13ulv28863.2 kV=0.12 Vminpu=0.8 Vmaxpu=1.2 model=1 kW=9.980822831463684 kvar=0.4836710576660136 Phases=1 yearly=res_kw_2149_pu

New Load.load_p13ulv28864 conn=wye bus1=p13ulv28864.1.2.3 kV=0.48 Vminpu=0.8 Vmaxpu=1.2 model=1 kW=84.28322695945107 kvar=4.247208061058737 Phases=3 yearly=res_kw_2957_pu

New Load.load_p13ulv28865_1 conn=wye bus1=p13ulv28865.1 kV=0.12 Vminpu=0.8 Vmaxpu=1.2 model=1 kW=4.237064396976419 kvar=0.25029256707639685 Phases=1 yearly=com_kw_1949_pu

New Load.load_p13ulv28865_2 conn=wye bus1=p13ulv28865.2 kV=0.12 Vminpu=0.8 Vmaxpu=1.2 model=1 kW=4.237064396976419 kvar=0.25029256707639685 Phases=1 yearly=com_kw_1949_pu

New Load.load_p13ulv28866_1 conn=wye bus1=p13ulv28866.1 kV=0.12 Vminpu=0.8 Vmaxpu=1.2 model=1 kW=17.03017432761673 kvar=3.836605888091303 Phases=1 yearly=res_kw_1695_pu

New Load.load_p13ulv28866_2 conn=wye bus1=p13ulv28866.2 kV=0.12 Vminpu=0.8 Vmaxpu=1.2 model=1 kW=17.03017432761673 kvar=3.836605888091303 Phases=1 yearly=res_kw_1695_pu

New Load.load_p13ulv28867 conn=wye bus1=p13ulv28867.1.2.3 kV=0.48 Vminpu=0.8 Vmaxpu=1.2 model=1 kW=32.55722424745225 kvar=7.635166278680363 Phases=3 yearly=com_kw_17177_pu

New Load.load_p13ulv28868 conn=wye bus1=p13ulv28868.1.2.3 kV=0.48 Vminpu=0.8 Vmaxpu=1.2 model=1 kW=60.1537266887971 kvar=7.664999487274134 Phases=3 yearly=com_kw_17769_pu

New Load.load_p13ulv28869_1 conn=wye bus1=p13ulv28869.1 kV=0.12 Vminpu=0.8 Vmaxpu=1.2 model=1 kW=8.230517440731058 kvar=2.104488632285453 Phases=1 yearly=com_kw_22430_pu

New Load.load_p13ulv28869_2 conn=wye bus1=p13ulv28869.2 kV=0.12 Vminpu=0.8 Vmaxpu=1.2 model=1 kW=8.230517440731058 kvar=2.104488632285453 Phases=1 yearly=com_kw_22430_pu

New Load.load_p13ulv28870_1 conn=wye bus1=p13ulv28870.1 kV=0.12 Vminpu=0.8 Vmaxpu=1.2 model=1 kW=6.511301584867784 kvar=1.5460762472192853 Phases=1 yearly=com_kw_29050_pu

New Load.load_p13ulv28870_2 conn=wye bus1=p13ulv28870.2 kV=0.12 Vminpu=0.8 Vmaxpu=1.2 model=1 kW=6.511301584867784 kvar=1.5460762472192853 Phases=1 yearly=com_kw_29050_pu

New Load.load_p13ulv28871_1 conn=wye bus1=p13ulv28871.1 kV=0.12 Vminpu=0.8 Vmaxpu=1.2 model=1 kW=12.50350995434999 kvar=2.5067711157670263 Phases=1 yearly=res_kw_8859_pu

New Load.load_p13ulv28871_2 conn=wye bus1=p13ulv28871.2 kV=0.12 Vminpu=0.8 Vmaxpu=1.2 model=1 kW=12.50350995434999 kvar=2.5067711157670263 Phases=1 yearly=res_kw_8859_pu

New Load.load_p13ulv28872_1 conn=wye bus1=p13ulv28872.1 kV=0.12 Vminpu=0.8 Vmaxpu=1.2 model=1 kW=4.013992703229786 kvar=0.0951464885764126 Phases=1 yearly=res_kw_6166_pu

New Load.load_p13ulv28872_2 conn=wye bus1=p13ulv28872.2 kV=0.12 Vminpu=0.8 Vmaxpu=1.2 model=1 kW=4.013992703229786 kvar=0.0951464885764126 Phases=1 yearly=res_kw_6166_pu

New Load.load_p13ulv28873_1 conn=wye bus1=p13ulv28873.1 kV=0.12 Vminpu=0.8 Vmaxpu=1.2 model=1 kW=9.578866457828433 kvar=0.5168325569261256 Phases=1 yearly=res_kw_2326_pu

New Load.load_p13ulv28873_2 conn=wye bus1=p13ulv28873.2 kV=0.12 Vminpu=0.8 Vmaxpu=1.2 model=1 kW=9.578866457828433 kvar=0.5168325569261256 Phases=1 yearly=res_kw_2326_pu

New Load.load_p13ulv28874_1 conn=wye bus1=p13ulv28874.1 kV=0.12 Vminpu=0.8 Vmaxpu=1.2 model=1 kW=19.459249410884944 kvar=3.354108443229094 Phases=1 yearly=res_kw_6222_pu

New Load.load_p13ulv28874_2 conn=wye bus1=p13ulv28874.2 kV=0.12 Vminpu=0.8 Vmaxpu=1.2 model=1 kW=19.459249410884944 kvar=3.354108443229094 Phases=1 yearly=res_kw_6222_pu

New Load.load_p13ulv28875_1 conn=wye bus1=p13ulv28875.1 kV=0.12 Vminpu=0.8 Vmaxpu=1.2 model=1 kW=2.195299938972355 kvar=0.5861404478512101 Phases=1 yearly=com_kw_17146_pu

New Load.load_p13ulv28875_2 conn=wye bus1=p13ulv28875.2 kV=0.12 Vminpu=0.8 Vmaxpu=1.2 model=1 kW=2.195299938972355 kvar=0.5861404478512101 Phases=1 yearly=com_kw_17146_pu

New Load.load_p13ulv28876_1 conn=wye bus1=p13ulv28876.1 kV=0.12 Vminpu=0.8 Vmaxpu=1.2 model=1 kW=5.883612677149364 kvar=1.2471816910894462 Phases=1 yearly=com_kw_31464_pu

New Load.load_p13ulv28876_2 conn=wye bus1=p13ulv28876.2 kV=0.12 Vminpu=0.8 Vmaxpu=1.2 model=1 kW=5.883612677149364 kvar=1.2471816910894462 Phases=1 yearly=com_kw_31464_pu

New Load.load_p13ulv28877 conn=wye bus1=p13ulv28877.1.2.3 kV=0.48 Vminpu=0.8 Vmaxpu=1.2 model=1 kW=33.91540890426912 kvar=11.194093304839999 Phases=3 yearly=com_kw_31838_pu

New Load.load_p13ulv28878_1 conn=wye bus1=p13ulv28878.1 kV=0.12 Vminpu=0.8 Vmaxpu=1.2 model=1 kW=18.52211009124362 kvar=4.694234972274499 Phases=1 yearly=res_kw_7254_pu

New Load.load_p13ulv28878_2 conn=wye bus1=p13ulv28878.2 kV=0.12 Vminpu=0.8 Vmaxpu=1.2 model=1 kW=18.52211009124362 kvar=4.694234972274499 Phases=1 yearly=res_kw_7254_pu

New Load.load_p13ulv28879 conn=wye bus1=p13ulv28879.1.2.3 kV=0.48 Vminpu=0.8 Vmaxpu=1.2 model=1 kW=68.16062367940367 kvar=17.748980941503106 Phases=3 yearly=res_kw_14078_pu

New Load.load_p13ulv28880 conn=wye bus1=p13ulv28880.1.2.3 kV=0.48 Vminpu=0.8 Vmaxpu=1.2 model=1 kW=51.70940561886608 kvar=13.638522124246219 Phases=3 yearly=com_kw_17937_pu

New Load.load_p13ulv28881 conn=wye bus1=p13ulv28881.1.2.3 kV=0.48 Vminpu=0.8 Vmaxpu=1.2 model=1 kW=20.281496428532687 kvar=5.410370159399045 Phases=3 yearly=com_kw_15909_pu

New Load.load_p13ulv28882 conn=wye bus1=p13ulv28882.1.2.3 kV=0.48 Vminpu=0.8 Vmaxpu=1.2 model=1 kW=19.74715008075674 kvar=5.062008479290293 Phases=3 yearly=com_kw_19572_pu

New Load.load_p13ulv28883 conn=wye bus1=p13ulv28883.1.2.3 kV=0.48 Vminpu=0.8 Vmaxpu=1.2 model=1 kW=132.23789028975452 kvar=22.026402055644976 Phases=3 yearly=res_kw_308_pu

New Load.load_p13ulv28884 conn=wye bus1=p13ulv28884.1.2.3 kV=0.48 Vminpu=0.8 Vmaxpu=1.2 model=1 kW=77.75934451111685 kvar=27.85913770867297 Phases=3 yearly=res_kw_1983_pu

...